Circuit: * C:\Users\Ethan\OneDrive - Virginia Tech\Projects\drums\edrumulus\sim_frontend_protoboard_card\sim_frontend.asc

Direct Newton iteration for .op point succeeded.

Date: Sun Oct 20 11:10:04 2024
Total elapsed time: 0.042 seconds.

tnom = 27
temp = 27
method = trap
totiter = 4
traniter = 0
tranpoints = 0
accept = 0
rejected = 0
matrix size = 8
fillins = 0
solver = Normal
Avg thread counts: 8.0/0.0/8.0/8.0
Matrix Compiler1:      16 opcodes
Matrix Compiler2: 560 bytes object code size
